LTspice 24.0.12 for Windows
Circuit: * C:\Documents\Desktop\Simulations\the-simulation-vault\Power Electronics\Uncontrolled Halfwave Rectifier\RLLoad.asc
Start Time: Sat Oct 25 23:01:30 2025
solver = Normal
Maximum thread count: 12
tnom = 27
temp = 27
method = modified trap
.OP point found by inspection.
Total elapsed time: 2.457 seconds.

