LTspice 24.0.12 for Windows
Circuit: * C:\Documents\Desktop\Simulations\the-simulation-vault\Power Electronics\Uncontrolled Halfwave Rectifier\RLLoad with FWD.asc
Start Time: Sat Oct 25 23:02:32 2025
solver = Normal
Maximum thread count: 12
tnom = 27
temp = 27
method = modified trap
.OP point found by inspection.
Total elapsed time: 37.415 seconds.

